Version 4
SHEET 1 988 680
WIRE 640 -144 640 -176
WIRE 640 -144 512 -144
WIRE 768 -144 640 -144
WIRE 768 -112 768 -144
WIRE 512 -96 512 -144
WIRE 512 -96 304 -96
WIRE 304 -48 304 -96
WIRE 512 -48 512 -96
WIRE 768 0 768 -32
WIRE 304 80 304 32
WIRE 512 80 512 32
WIRE 512 80 304 80
WIRE 512 112 512 80
WIRE 640 112 512 112
WIRE 768 112 768 80
WIRE 768 112 640 112
WIRE 640 176 640 112
WIRE 640 176 512 176
WIRE 768 176 640 176
WIRE 512 208 512 176
WIRE 768 208 768 176
WIRE 512 304 512 272
WIRE 640 304 512 304
WIRE 768 304 768 272
WIRE 768 304 640 304
WIRE 640 336 640 304
WIRE 768 336 640 336
WIRE 640 368 640 336
WIRE 768 368 768 336
WIRE 640 480 640 448
WIRE 768 480 768 448
WIRE 768 480 640 480
WIRE 640 512 640 480
FLAG 640 512 0
FLAG 640 -176 BATT
FLAG 464 16 0
FLAG 816 -48 0
FLAG 592 432 0
FLAG 464 -32 AIR+
FLAG 816 -96 K_pre-charge
FLAG 592 384 AIR-
FLAG 784 256 0
FLAG 784 224 Load
FLAG -208 -96 0
FLAG -208 -176 BATT
SYMBOL sw 512 48 M180
SYMATTR InstName AIR+
SYMATTR Value AIR
SYMBOL sw 640 464 M180
SYMATTR InstName AIR-
SYMATTR Value AIR
SYMBOL sw 768 -16 R180
SYMATTR InstName K_pre-charge
SYMATTR Value Kp
SYMBOL cap 496 208 R0
SYMATTR InstName BUS_Capacitance
SYMATTR Value 350µ
SYMBOL SpecialFunctions\\varistor 752 304 R180
SYMATTR InstName Load
SYMBOL res 784 96 R180
WINDOW 0 36 76 Left 2
WINDOW 3 36 40 Left 2
SYMATTR InstName R_pre-charge
SYMATTR Value 5.6K
SYMBOL res 752 352 R0
SYMATTR InstName Det-
SYMATTR Value 10Meg
SYMBOL res 288 -64 R0
SYMATTR InstName Det+
SYMATTR Value 10Meg
SYMBOL voltage -208 -192 R0
WINDOW 123 0 0 Left 2
WINDOW 39 24 44 Left 2
SYMATTR InstName V1
SYMATTR Value 388
SYMATTR SpiceLine Rser=5m
